<?xml version="1.0" encoding="UTF-8"?>

<!-- generated on 2019. júl.  9., kedd, 14:20:52 CEST by Eclipse SUMO netedit Version 1.2.0
<configuration xmlns:xsi="http://www.w3.org/2001/XMLSchema-instance" xsi:noNamespaceSchemaLocation="http://sumo.dlr.de/xsd/netconvertConfiguration.xsd">

    <input>
        <sumo-net-file value="/home/szoke/workspace/RLhighway/sumoProject/envs/v2.net.xml"/>
    </input>

    <output>
        <output-file value="/home/szoke/workspace/RLhighway/sumoProject/envs/v2.net.xml"/>
    </output>

    <processing>
        <geometry.max-grade.fix value="false"/>
        <offset.disable-normalization value="true"/>
        <lefthand value="false"/>
    </processing>

    <junctions>
        <no-turnarounds value="true"/>
        <junctions.corner-detail value="5"/>
        <junctions.limit-turn-speed value="5.5"/>
        <rectangular-lane-cut value="false"/>
    </junctions>

    <pedestrian>
        <walkingareas value="false"/>
    </pedestrian>

    <visualisation>
        <registry-viewport value="true"/>
    </visualisation>

</configuration>
-->

<net xmlns:xsi="http://www.w3.org/2001/XMLSchema-instance" version="1.1" junctionCornerDetail="5" limitTurnSpeed="5.50"
     xsi:noNamespaceSchemaLocation="http://sumo.dlr.de/xsd/net_file.xsd">

    <location netOffset="0.00,0.00" convBoundary="-500.00,100.00,1500.00,100.00"
              origBoundary="-10000000000.00,-10000000000.00,10000000000.00,10000000000.00" projParameter="!"/>

    <edge id=":gneJ10_0" function="internal">
        <lane id=":gneJ10_0_0" index="0" speed="30.00" length="0.10" shape="400.00,92.00 400.00,92.00"/>
        <lane id=":gneJ10_0_1" index="1" speed="30.00" length="0.10" shape="400.00,95.20 400.00,95.20"/>
        <lane id=":gneJ10_0_2" index="2" speed="30.00" length="0.10" shape="400.00,98.40 400.00,98.40"/>
    </edge>
    <edge id=":gneJ11_0" function="internal">
        <lane id=":gneJ11_0_0" index="0" speed="30.00" length="0.10" shape="500.00,92.00 500.00,92.00"/>
        <lane id=":gneJ11_0_1" index="1" speed="30.00" length="0.10" shape="500.00,95.20 500.00,95.20"/>
        <lane id=":gneJ11_0_2" index="2" speed="30.00" length="0.10" shape="500.00,98.40 500.00,98.40"/>
    </edge>
    <edge id=":gneJ12_0" function="internal">
        <lane id=":gneJ12_0_0" index="0" speed="30.00" length="0.10" shape="600.00,92.00 600.00,92.00"/>
        <lane id=":gneJ12_0_1" index="1" speed="30.00" length="0.10" shape="600.00,95.20 600.00,95.20"/>
        <lane id=":gneJ12_0_2" index="2" speed="30.00" length="0.10" shape="600.00,98.40 600.00,98.40"/>
    </edge>
    <edge id=":gneJ13_0" function="internal">
        <lane id=":gneJ13_0_0" index="0" speed="30.00" length="0.10" shape="700.00,92.00 700.00,92.00"/>
        <lane id=":gneJ13_0_1" index="1" speed="30.00" length="0.10" shape="700.00,95.20 700.00,95.20"/>
        <lane id=":gneJ13_0_2" index="2" speed="30.00" length="0.10" shape="700.00,98.40 700.00,98.40"/>
    </edge>
    <edge id=":gneJ14_0" function="internal">
        <lane id=":gneJ14_0_0" index="0" speed="30.00" length="0.10" shape="800.00,92.00 800.00,92.00"/>
        <lane id=":gneJ14_0_1" index="1" speed="30.00" length="0.10" shape="800.00,95.20 800.00,95.20"/>
        <lane id=":gneJ14_0_2" index="2" speed="30.00" length="0.10" shape="800.00,98.40 800.00,98.40"/>
    </edge>
    <edge id=":gneJ15_0" function="internal">
        <lane id=":gneJ15_0_0" index="0" speed="30.00" length="0.10" shape="900.00,92.00 900.00,92.00"/>
        <lane id=":gneJ15_0_1" index="1" speed="30.00" length="0.10" shape="900.00,95.20 900.00,95.20"/>
        <lane id=":gneJ15_0_2" index="2" speed="30.00" length="0.10" shape="900.00,98.40 900.00,98.40"/>
    </edge>
    <edge id=":gneJ16_0" function="internal">
        <lane id=":gneJ16_0_0" index="0" speed="30.00" length="0.10" shape="1000.00,92.00 1000.00,92.00"/>
        <lane id=":gneJ16_0_1" index="1" speed="30.00" length="0.10" shape="1000.00,95.20 1000.00,95.20"/>
        <lane id=":gneJ16_0_2" index="2" speed="30.00" length="0.10" shape="1000.00,98.40 1000.00,98.40"/>
    </edge>
    <edge id=":gneJ17_0" function="internal">
        <lane id=":gneJ17_0_0" index="0" speed="30.00" length="0.10" shape="1100.00,92.00 1100.00,92.00"/>
        <lane id=":gneJ17_0_1" index="1" speed="30.00" length="0.10" shape="1100.00,95.20 1100.00,95.20"/>
        <lane id=":gneJ17_0_2" index="2" speed="30.00" length="0.10" shape="1100.00,98.40 1100.00,98.40"/>
    </edge>
    <edge id=":gneJ18_0" function="internal">
        <lane id=":gneJ18_0_0" index="0" speed="30.00" length="0.10" shape="1200.00,92.00 1200.00,92.00"/>
        <lane id=":gneJ18_0_1" index="1" speed="30.00" length="0.10" shape="1200.00,95.20 1200.00,95.20"/>
        <lane id=":gneJ18_0_2" index="2" speed="30.00" length="0.10" shape="1200.00,98.40 1200.00,98.40"/>
    </edge>
    <edge id=":gneJ19_0" function="internal">
        <lane id=":gneJ19_0_0" index="0" speed="30.00" length="0.10" shape="1300.00,92.00 1300.00,92.00"/>
        <lane id=":gneJ19_0_1" index="1" speed="30.00" length="0.10" shape="1300.00,95.20 1300.00,95.20"/>
        <lane id=":gneJ19_0_2" index="2" speed="30.00" length="0.10" shape="1300.00,98.40 1300.00,98.40"/>
    </edge>
    <edge id=":gneJ2_0" function="internal">
        <lane id=":gneJ2_0_0" index="0" speed="30.00" length="0.10" shape="-400.00,92.00 -400.00,92.00"/>
        <lane id=":gneJ2_0_1" index="1" speed="30.00" length="0.10" shape="-400.00,95.20 -400.00,95.20"/>
        <lane id=":gneJ2_0_2" index="2" speed="30.00" length="0.10" shape="-400.00,98.40 -400.00,98.40"/>
    </edge>
    <edge id=":gneJ20_0" function="internal">
        <lane id=":gneJ20_0_0" index="0" speed="30.00" length="0.10" shape="1400.00,92.00 1400.00,92.00"/>
        <lane id=":gneJ20_0_1" index="1" speed="30.00" length="0.10" shape="1400.00,95.20 1400.00,95.20"/>
        <lane id=":gneJ20_0_2" index="2" speed="30.00" length="0.10" shape="1400.00,98.40 1400.00,98.40"/>
    </edge>
    <edge id=":gneJ3_0" function="internal">
        <lane id=":gneJ3_0_0" index="0" speed="30.00" length="0.10" shape="-300.00,92.00 -300.00,92.00"/>
        <lane id=":gneJ3_0_1" index="1" speed="30.00" length="0.10" shape="-300.00,95.20 -300.00,95.20"/>
        <lane id=":gneJ3_0_2" index="2" speed="30.00" length="0.10" shape="-300.00,98.40 -300.00,98.40"/>
    </edge>
    <edge id=":gneJ4_0" function="internal">
        <lane id=":gneJ4_0_0" index="0" speed="30.00" length="0.10" shape="-200.00,92.00 -200.00,92.00"/>
        <lane id=":gneJ4_0_1" index="1" speed="30.00" length="0.10" shape="-200.00,95.20 -200.00,95.20"/>
        <lane id=":gneJ4_0_2" index="2" speed="30.00" length="0.10" shape="-200.00,98.40 -200.00,98.40"/>
    </edge>
    <edge id=":gneJ5_0" function="internal">
        <lane id=":gneJ5_0_0" index="0" speed="30.00" length="0.10" shape="-100.00,92.00 -100.00,92.00"/>
        <lane id=":gneJ5_0_1" index="1" speed="30.00" length="0.10" shape="-100.00,95.20 -100.00,95.20"/>
        <lane id=":gneJ5_0_2" index="2" speed="30.00" length="0.10" shape="-100.00,98.40 -100.00,98.40"/>
    </edge>
    <edge id=":gneJ6_0" function="internal">
        <lane id=":gneJ6_0_0" index="0" speed="30.00" length="0.10" shape="0.00,92.00 0.00,92.00"/>
        <lane id=":gneJ6_0_1" index="1" speed="30.00" length="0.10" shape="0.00,95.20 0.00,95.20"/>
        <lane id=":gneJ6_0_2" index="2" speed="30.00" length="0.10" shape="0.00,98.40 0.00,98.40"/>
    </edge>
    <edge id=":gneJ7_0" function="internal">
        <lane id=":gneJ7_0_0" index="0" speed="30.00" length="0.10" shape="100.00,92.00 100.00,92.00"/>
        <lane id=":gneJ7_0_1" index="1" speed="30.00" length="0.10" shape="100.00,95.20 100.00,95.20"/>
        <lane id=":gneJ7_0_2" index="2" speed="30.00" length="0.10" shape="100.00,98.40 100.00,98.40"/>
    </edge>
    <edge id=":gneJ8_0" function="internal">
        <lane id=":gneJ8_0_0" index="0" speed="30.00" length="0.10" shape="200.00,92.00 200.00,92.00"/>
        <lane id=":gneJ8_0_1" index="1" speed="30.00" length="0.10" shape="200.00,95.20 200.00,95.20"/>
        <lane id=":gneJ8_0_2" index="2" speed="30.00" length="0.10" shape="200.00,98.40 200.00,98.40"/>
    </edge>
    <edge id=":gneJ9_0" function="internal">
        <lane id=":gneJ9_0_0" index="0" speed="30.00" length="0.10" shape="300.00,92.00 300.00,92.00"/>
        <lane id=":gneJ9_0_1" index="1" speed="30.00" length="0.10" shape="300.00,95.20 300.00,95.20"/>
        <lane id=":gneJ9_0_2" index="2" speed="30.00" length="0.10" shape="300.00,98.40 300.00,98.40"/>
    </edge>

    <edge id="A" from="J1" to="gneJ2" priority="-1" length="200.00"
          shape="-500.00,100.00 -455.10,100.00 -400.00,100.00">
        <lane id="A_0" index="0" speed="30.00" length="200.00" shape="-500.00,92.00 -455.10,92.00 -400.00,92.00"/>
        <lane id="A_1" index="1" speed="30.00" length="200.00" shape="-500.00,95.20 -455.10,95.20 -400.00,95.20"/>
        <lane id="A_2" index="2" speed="30.00" length="200.00" shape="-500.00,98.40 -455.10,98.40 -400.00,98.40"/>
    </edge>
    <edge id="B" from="gneJ20" to="gneJ21" priority="-1" length="200.00">
        <lane id="B_0" index="0" speed="30.00" length="200.00" shape="1400.00,92.00 1500.00,92.00"/>
        <lane id="B_1" index="1" speed="30.00" length="200.00" shape="1400.00,95.20 1500.00,95.20"/>
        <lane id="B_2" index="2" speed="30.00" length="200.00" shape="1400.00,98.40 1500.00,98.40"/>
    </edge>
    <edge id="gneE1" from="gneJ2" to="gneJ3" priority="-1" length="200.00">
        <lane id="gneE1_0" index="0" speed="30.00" length="200.00" shape="-400.00,92.00 -300.00,92.00"/>
        <lane id="gneE1_1" index="1" speed="30.00" length="200.00" shape="-400.00,95.20 -300.00,95.20"/>
        <lane id="gneE1_2" index="2" speed="30.00" length="200.00" shape="-400.00,98.40 -300.00,98.40"/>
    </edge>
    <edge id="gneE10" from="gneJ11" to="gneJ12" priority="-1" length="200.00">
        <lane id="gneE10_0" index="0" speed="30.00" length="200.00" shape="500.00,92.00 600.00,92.00"/>
        <lane id="gneE10_1" index="1" speed="30.00" length="200.00" shape="500.00,95.20 600.00,95.20"/>
        <lane id="gneE10_2" index="2" speed="30.00" length="200.00" shape="500.00,98.40 600.00,98.40"/>
    </edge>
    <edge id="gneE11" from="gneJ12" to="gneJ13" priority="-1" length="200.00">
        <lane id="gneE11_0" index="0" speed="30.00" length="200.00" shape="600.00,92.00 700.00,92.00"/>
        <lane id="gneE11_1" index="1" speed="30.00" length="200.00" shape="600.00,95.20 700.00,95.20"/>
        <lane id="gneE11_2" index="2" speed="30.00" length="200.00" shape="600.00,98.40 700.00,98.40"/>
    </edge>
    <edge id="gneE12" from="gneJ13" to="gneJ14" priority="-1" length="200.00">
        <lane id="gneE12_0" index="0" speed="30.00" length="200.00" shape="700.00,92.00 800.00,92.00"/>
        <lane id="gneE12_1" index="1" speed="30.00" length="200.00" shape="700.00,95.20 800.00,95.20"/>
        <lane id="gneE12_2" index="2" speed="30.00" length="200.00" shape="700.00,98.40 800.00,98.40"/>
    </edge>
    <edge id="gneE13" from="gneJ14" to="gneJ15" priority="-1" length="200.00">
        <lane id="gneE13_0" index="0" speed="30.00" length="200.00" shape="800.00,92.00 900.00,92.00"/>
        <lane id="gneE13_1" index="1" speed="30.00" length="200.00" shape="800.00,95.20 900.00,95.20"/>
        <lane id="gneE13_2" index="2" speed="30.00" length="200.00" shape="800.00,98.40 900.00,98.40"/>
    </edge>
    <edge id="gneE14" from="gneJ15" to="gneJ16" priority="-1" length="200.00">
        <lane id="gneE14_0" index="0" speed="30.00" length="200.00" shape="900.00,92.00 1000.00,92.00"/>
        <lane id="gneE14_1" index="1" speed="30.00" length="200.00" shape="900.00,95.20 1000.00,95.20"/>
        <lane id="gneE14_2" index="2" speed="30.00" length="200.00" shape="900.00,98.40 1000.00,98.40"/>
    </edge>
    <edge id="gneE15" from="gneJ16" to="gneJ17" priority="-1" length="200.00">
        <lane id="gneE15_0" index="0" speed="30.00" length="200.00" shape="1000.00,92.00 1100.00,92.00"/>
        <lane id="gneE15_1" index="1" speed="30.00" length="200.00" shape="1000.00,95.20 1100.00,95.20"/>
        <lane id="gneE15_2" index="2" speed="30.00" length="200.00" shape="1000.00,98.40 1100.00,98.40"/>
    </edge>
    <edge id="gneE16" from="gneJ17" to="gneJ18" priority="-1" length="200.00">
        <lane id="gneE16_0" index="0" speed="30.00" length="200.00" shape="1100.00,92.00 1200.00,92.00"/>
        <lane id="gneE16_1" index="1" speed="30.00" length="200.00" shape="1100.00,95.20 1200.00,95.20"/>
        <lane id="gneE16_2" index="2" speed="30.00" length="200.00" shape="1100.00,98.40 1200.00,98.40"/>
    </edge>
    <edge id="gneE17" from="gneJ18" to="gneJ19" priority="-1" length="200.00">
        <lane id="gneE17_0" index="0" speed="30.00" length="200.00" shape="1200.00,92.00 1300.00,92.00"/>
        <lane id="gneE17_1" index="1" speed="30.00" length="200.00" shape="1200.00,95.20 1300.00,95.20"/>
        <lane id="gneE17_2" index="2" speed="30.00" length="200.00" shape="1200.00,98.40 1300.00,98.40"/>
    </edge>
    <edge id="gneE18" from="gneJ19" to="gneJ20" priority="-1" length="200.00">
        <lane id="gneE18_0" index="0" speed="30.00" length="200.00" shape="1300.00,92.00 1400.00,92.00"/>
        <lane id="gneE18_1" index="1" speed="30.00" length="200.00" shape="1300.00,95.20 1400.00,95.20"/>
        <lane id="gneE18_2" index="2" speed="30.00" length="200.00" shape="1300.00,98.40 1400.00,98.40"/>
    </edge>
    <edge id="gneE2" from="gneJ3" to="gneJ4" priority="-1" length="200.00">
        <lane id="gneE2_0" index="0" speed="30.00" length="200.00" shape="-300.00,92.00 -200.00,92.00"/>
        <lane id="gneE2_1" index="1" speed="30.00" length="200.00" shape="-300.00,95.20 -200.00,95.20"/>
        <lane id="gneE2_2" index="2" speed="30.00" length="200.00" shape="-300.00,98.40 -200.00,98.40"/>
    </edge>
    <edge id="gneE3" from="gneJ4" to="gneJ5" priority="-1" length="200.00">
        <lane id="gneE3_0" index="0" speed="30.00" length="200.00" shape="-200.00,92.00 -100.00,92.00"/>
        <lane id="gneE3_1" index="1" speed="30.00" length="200.00" shape="-200.00,95.20 -100.00,95.20"/>
        <lane id="gneE3_2" index="2" speed="30.00" length="200.00" shape="-200.00,98.40 -100.00,98.40"/>
    </edge>
    <edge id="gneE4" from="gneJ5" to="gneJ6" priority="-1" length="200.00">
        <lane id="gneE4_0" index="0" speed="30.00" length="200.00" shape="-100.00,92.00 0.00,92.00"/>
        <lane id="gneE4_1" index="1" speed="30.00" length="200.00" shape="-100.00,95.20 0.00,95.20"/>
        <lane id="gneE4_2" index="2" speed="30.00" length="200.00" shape="-100.00,98.40 0.00,98.40"/>
    </edge>
    <edge id="gneE5" from="gneJ6" to="gneJ7" priority="-1" length="200.00">
        <lane id="gneE5_0" index="0" speed="30.00" length="200.00" shape="0.00,92.00 100.00,92.00"/>
        <lane id="gneE5_1" index="1" speed="30.00" length="200.00" shape="0.00,95.20 100.00,95.20"/>
        <lane id="gneE5_2" index="2" speed="30.00" length="200.00" shape="0.00,98.40 100.00,98.40"/>
    </edge>
    <edge id="gneE6" from="gneJ7" to="gneJ8" priority="-1" length="200.00">
        <lane id="gneE6_0" index="0" speed="30.00" length="200.00" shape="100.00,92.00 200.00,92.00"/>
        <lane id="gneE6_1" index="1" speed="30.00" length="200.00" shape="100.00,95.20 200.00,95.20"/>
        <lane id="gneE6_2" index="2" speed="30.00" length="200.00" shape="100.00,98.40 200.00,98.40"/>
    </edge>
    <edge id="gneE7" from="gneJ8" to="gneJ9" priority="-1" length="200.00">
        <lane id="gneE7_0" index="0" speed="30.00" length="200.00" shape="200.00,92.00 300.00,92.00"/>
        <lane id="gneE7_1" index="1" speed="30.00" length="200.00" shape="200.00,95.20 300.00,95.20"/>
        <lane id="gneE7_2" index="2" speed="30.00" length="200.00" shape="200.00,98.40 300.00,98.40"/>
    </edge>
    <edge id="gneE8" from="gneJ9" to="gneJ10" priority="-1" length="200.00">
        <lane id="gneE8_0" index="0" speed="30.00" length="200.00" shape="300.00,92.00 400.00,92.00"/>
        <lane id="gneE8_1" index="1" speed="30.00" length="200.00" shape="300.00,95.20 400.00,95.20"/>
        <lane id="gneE8_2" index="2" speed="30.00" length="200.00" shape="300.00,98.40 400.00,98.40"/>
    </edge>
    <edge id="gneE9" from="gneJ10" to="gneJ11" priority="-1" length="200.00">
        <lane id="gneE9_0" index="0" speed="30.00" length="200.00" shape="400.00,92.00 500.00,92.00"/>
        <lane id="gneE9_1" index="1" speed="30.00" length="200.00" shape="400.00,95.20 500.00,95.20"/>
        <lane id="gneE9_2" index="2" speed="30.00" length="200.00" shape="400.00,98.40 500.00,98.40"/>
    </edge>

    <junction id="J1" type="dead_end" x="-500.00" y="100.00" incLanes="" intLanes=""
              shape="-500.00,100.00 -500.00,90.40"/>
    <junction id="gneJ10" type="priority" x="400.00" y="100.00" incLanes="gneE8_0 gneE8_1 gneE8_2"
              intLanes=":gneJ10_0_0 :gneJ10_0_1 :gneJ10_0_2" shape="400.00,100.00 400.00,90.40 400.00,100.00">
        <request index="0" response="000" foes="000" cont="0"/>
        <request index="1" response="000" foes="000" cont="0"/>
        <request index="2" response="000" foes="000" cont="0"/>
    </junction>
    <junction id="gneJ11" type="priority" x="500.00" y="100.00" incLanes="gneE9_0 gneE9_1 gneE9_2"
              intLanes=":gneJ11_0_0 :gneJ11_0_1 :gneJ11_0_2" shape="500.00,100.00 500.00,90.40 500.00,100.00">
        <request index="0" response="000" foes="000" cont="0"/>
        <request index="1" response="000" foes="000" cont="0"/>
        <request index="2" response="000" foes="000" cont="0"/>
    </junction>
    <junction id="gneJ12" type="priority" x="600.00" y="100.00" incLanes="gneE10_0 gneE10_1 gneE10_2"
              intLanes=":gneJ12_0_0 :gneJ12_0_1 :gneJ12_0_2" shape="600.00,100.00 600.00,90.40 600.00,100.00">
        <request index="0" response="000" foes="000" cont="0"/>
        <request index="1" response="000" foes="000" cont="0"/>
        <request index="2" response="000" foes="000" cont="0"/>
    </junction>
    <junction id="gneJ13" type="priority" x="700.00" y="100.00" incLanes="gneE11_0 gneE11_1 gneE11_2"
              intLanes=":gneJ13_0_0 :gneJ13_0_1 :gneJ13_0_2" shape="700.00,100.00 700.00,90.40 700.00,100.00">
        <request index="0" response="000" foes="000" cont="0"/>
        <request index="1" response="000" foes="000" cont="0"/>
        <request index="2" response="000" foes="000" cont="0"/>
    </junction>
    <junction id="gneJ14" type="priority" x="800.00" y="100.00" incLanes="gneE12_0 gneE12_1 gneE12_2"
              intLanes=":gneJ14_0_0 :gneJ14_0_1 :gneJ14_0_2" shape="800.00,100.00 800.00,90.40 800.00,100.00">
        <request index="0" response="000" foes="000" cont="0"/>
        <request index="1" response="000" foes="000" cont="0"/>
        <request index="2" response="000" foes="000" cont="0"/>
    </junction>
    <junction id="gneJ15" type="priority" x="900.00" y="100.00" incLanes="gneE13_0 gneE13_1 gneE13_2"
              intLanes=":gneJ15_0_0 :gneJ15_0_1 :gneJ15_0_2" shape="900.00,100.00 900.00,90.40 900.00,100.00">
        <request index="0" response="000" foes="000" cont="0"/>
        <request index="1" response="000" foes="000" cont="0"/>
        <request index="2" response="000" foes="000" cont="0"/>
    </junction>
    <junction id="gneJ16" type="priority" x="1000.00" y="100.00" incLanes="gneE14_0 gneE14_1 gneE14_2"
              intLanes=":gneJ16_0_0 :gneJ16_0_1 :gneJ16_0_2" shape="1000.00,100.00 1000.00,90.40 1000.00,100.00">
        <request index="0" response="000" foes="000" cont="0"/>
        <request index="1" response="000" foes="000" cont="0"/>
        <request index="2" response="000" foes="000" cont="0"/>
    </junction>
    <junction id="gneJ17" type="priority" x="1100.00" y="100.00" incLanes="gneE15_0 gneE15_1 gneE15_2"
              intLanes=":gneJ17_0_0 :gneJ17_0_1 :gneJ17_0_2" shape="1100.00,100.00 1100.00,90.40 1100.00,100.00">
        <request index="0" response="000" foes="000" cont="0"/>
        <request index="1" response="000" foes="000" cont="0"/>
        <request index="2" response="000" foes="000" cont="0"/>
    </junction>
    <junction id="gneJ18" type="priority" x="1200.00" y="100.00" incLanes="gneE16_0 gneE16_1 gneE16_2"
              intLanes=":gneJ18_0_0 :gneJ18_0_1 :gneJ18_0_2" shape="1200.00,100.00 1200.00,90.40 1200.00,100.00">
        <request index="0" response="000" foes="000" cont="0"/>
        <request index="1" response="000" foes="000" cont="0"/>
        <request index="2" response="000" foes="000" cont="0"/>
    </junction>
    <junction id="gneJ19" type="priority" x="1300.00" y="100.00" incLanes="gneE17_0 gneE17_1 gneE17_2"
              intLanes=":gneJ19_0_0 :gneJ19_0_1 :gneJ19_0_2" shape="1300.00,100.00 1300.00,90.40 1300.00,100.00">
        <request index="0" response="000" foes="000" cont="0"/>
        <request index="1" response="000" foes="000" cont="0"/>
        <request index="2" response="000" foes="000" cont="0"/>
    </junction>
    <junction id="gneJ2" type="priority" x="-400.00" y="100.00" incLanes="A_0 A_1 A_2"
              intLanes=":gneJ2_0_0 :gneJ2_0_1 :gneJ2_0_2" shape="-400.00,100.00 -400.00,90.40 -400.00,100.00">
        <request index="0" response="000" foes="000" cont="0"/>
        <request index="1" response="000" foes="000" cont="0"/>
        <request index="2" response="000" foes="000" cont="0"/>
    </junction>
    <junction id="gneJ20" type="priority" x="1400.00" y="100.00" incLanes="gneE18_0 gneE18_1 gneE18_2"
              intLanes=":gneJ20_0_0 :gneJ20_0_1 :gneJ20_0_2" shape="1400.00,100.00 1400.00,90.40 1400.00,100.00">
        <request index="0" response="000" foes="000" cont="0"/>
        <request index="1" response="000" foes="000" cont="0"/>
        <request index="2" response="000" foes="000" cont="0"/>
    </junction>
    <junction id="gneJ21" type="dead_end" x="1500.00" y="100.00" incLanes="B_0 B_1 B_2" intLanes=""
              shape="1500.00,90.40 1500.00,100.00"/>
    <junction id="gneJ3" type="priority" x="-300.00" y="100.00" incLanes="gneE1_0 gneE1_1 gneE1_2"
              intLanes=":gneJ3_0_0 :gneJ3_0_1 :gneJ3_0_2" shape="-300.00,100.00 -300.00,90.40 -300.00,100.00">
        <request index="0" response="000" foes="000" cont="0"/>
        <request index="1" response="000" foes="000" cont="0"/>
        <request index="2" response="000" foes="000" cont="0"/>
    </junction>
    <junction id="gneJ4" type="priority" x="-200.00" y="100.00" incLanes="gneE2_0 gneE2_1 gneE2_2"
              intLanes=":gneJ4_0_0 :gneJ4_0_1 :gneJ4_0_2" shape="-200.00,100.00 -200.00,90.40 -200.00,100.00">
        <request index="0" response="000" foes="000" cont="0"/>
        <request index="1" response="000" foes="000" cont="0"/>
        <request index="2" response="000" foes="000" cont="0"/>
    </junction>
    <junction id="gneJ5" type="priority" x="-100.00" y="100.00" incLanes="gneE3_0 gneE3_1 gneE3_2"
              intLanes=":gneJ5_0_0 :gneJ5_0_1 :gneJ5_0_2" shape="-100.00,100.00 -100.00,90.40 -100.00,100.00">
        <request index="0" response="000" foes="000" cont="0"/>
        <request index="1" response="000" foes="000" cont="0"/>
        <request index="2" response="000" foes="000" cont="0"/>
    </junction>
    <junction id="gneJ6" type="priority" x="0.00" y="100.00" incLanes="gneE4_0 gneE4_1 gneE4_2"
              intLanes=":gneJ6_0_0 :gneJ6_0_1 :gneJ6_0_2" shape="0.00,100.00 0.00,90.40 0.00,100.00">
        <request index="0" response="000" foes="000" cont="0"/>
        <request index="1" response="000" foes="000" cont="0"/>
        <request index="2" response="000" foes="000" cont="0"/>
    </junction>
    <junction id="gneJ7" type="priority" x="100.00" y="100.00" incLanes="gneE5_0 gneE5_1 gneE5_2"
              intLanes=":gneJ7_0_0 :gneJ7_0_1 :gneJ7_0_2" shape="100.00,100.00 100.00,90.40 100.00,100.00">
        <request index="0" response="000" foes="000" cont="0"/>
        <request index="1" response="000" foes="000" cont="0"/>
        <request index="2" response="000" foes="000" cont="0"/>
    </junction>
    <junction id="gneJ8" type="priority" x="200.00" y="100.00" incLanes="gneE6_0 gneE6_1 gneE6_2"
              intLanes=":gneJ8_0_0 :gneJ8_0_1 :gneJ8_0_2" shape="200.00,100.00 200.00,90.40 200.00,100.00">
        <request index="0" response="000" foes="000" cont="0"/>
        <request index="1" response="000" foes="000" cont="0"/>
        <request index="2" response="000" foes="000" cont="0"/>
    </junction>
    <junction id="gneJ9" type="priority" x="300.00" y="100.00" incLanes="gneE7_0 gneE7_1 gneE7_2"
              intLanes=":gneJ9_0_0 :gneJ9_0_1 :gneJ9_0_2" shape="300.00,100.00 300.00,90.40 300.00,100.00">
        <request index="0" response="000" foes="000" cont="0"/>
        <request index="1" response="000" foes="000" cont="0"/>
        <request index="2" response="000" foes="000" cont="0"/>
    </junction>

    <connection from="A" to="gneE1" fromLane="0" toLane="0" via=":gneJ2_0_0" dir="s" state="M"/>
    <connection from="A" to="gneE1" fromLane="1" toLane="1" via=":gneJ2_0_1" dir="s" state="M"/>
    <connection from="A" to="gneE1" fromLane="2" toLane="2" via=":gneJ2_0_2" dir="s" state="M"/>
    <connection from="gneE1" to="gneE2" fromLane="0" toLane="0" via=":gneJ3_0_0" dir="s" state="M"/>
    <connection from="gneE1" to="gneE2" fromLane="1" toLane="1" via=":gneJ3_0_1" dir="s" state="M"/>
    <connection from="gneE1" to="gneE2" fromLane="2" toLane="2" via=":gneJ3_0_2" dir="s" state="M"/>
    <connection from="gneE10" to="gneE11" fromLane="0" toLane="0" via=":gneJ12_0_0" dir="s" state="M"/>
    <connection from="gneE10" to="gneE11" fromLane="1" toLane="1" via=":gneJ12_0_1" dir="s" state="M"/>
    <connection from="gneE10" to="gneE11" fromLane="2" toLane="2" via=":gneJ12_0_2" dir="s" state="M"/>
    <connection from="gneE11" to="gneE12" fromLane="0" toLane="0" via=":gneJ13_0_0" dir="s" state="M"/>
    <connection from="gneE11" to="gneE12" fromLane="1" toLane="1" via=":gneJ13_0_1" dir="s" state="M"/>
    <connection from="gneE11" to="gneE12" fromLane="2" toLane="2" via=":gneJ13_0_2" dir="s" state="M"/>
    <connection from="gneE12" to="gneE13" fromLane="0" toLane="0" via=":gneJ14_0_0" dir="s" state="M"/>
    <connection from="gneE12" to="gneE13" fromLane="1" toLane="1" via=":gneJ14_0_1" dir="s" state="M"/>
    <connection from="gneE12" to="gneE13" fromLane="2" toLane="2" via=":gneJ14_0_2" dir="s" state="M"/>
    <connection from="gneE13" to="gneE14" fromLane="0" toLane="0" via=":gneJ15_0_0" dir="s" state="M"/>
    <connection from="gneE13" to="gneE14" fromLane="1" toLane="1" via=":gneJ15_0_1" dir="s" state="M"/>
    <connection from="gneE13" to="gneE14" fromLane="2" toLane="2" via=":gneJ15_0_2" dir="s" state="M"/>
    <connection from="gneE14" to="gneE15" fromLane="0" toLane="0" via=":gneJ16_0_0" dir="s" state="M"/>
    <connection from="gneE14" to="gneE15" fromLane="1" toLane="1" via=":gneJ16_0_1" dir="s" state="M"/>
    <connection from="gneE14" to="gneE15" fromLane="2" toLane="2" via=":gneJ16_0_2" dir="s" state="M"/>
    <connection from="gneE15" to="gneE16" fromLane="0" toLane="0" via=":gneJ17_0_0" dir="s" state="M"/>
    <connection from="gneE15" to="gneE16" fromLane="1" toLane="1" via=":gneJ17_0_1" dir="s" state="M"/>
    <connection from="gneE15" to="gneE16" fromLane="2" toLane="2" via=":gneJ17_0_2" dir="s" state="M"/>
    <connection from="gneE16" to="gneE17" fromLane="0" toLane="0" via=":gneJ18_0_0" dir="s" state="M"/>
    <connection from="gneE16" to="gneE17" fromLane="1" toLane="1" via=":gneJ18_0_1" dir="s" state="M"/>
    <connection from="gneE16" to="gneE17" fromLane="2" toLane="2" via=":gneJ18_0_2" dir="s" state="M"/>
    <connection from="gneE17" to="gneE18" fromLane="0" toLane="0" via=":gneJ19_0_0" dir="s" state="M"/>
    <connection from="gneE17" to="gneE18" fromLane="1" toLane="1" via=":gneJ19_0_1" dir="s" state="M"/>
    <connection from="gneE17" to="gneE18" fromLane="2" toLane="2" via=":gneJ19_0_2" dir="s" state="M"/>
    <connection from="gneE18" to="B" fromLane="0" toLane="0" via=":gneJ20_0_0" dir="s" state="M"/>
    <connection from="gneE18" to="B" fromLane="1" toLane="1" via=":gneJ20_0_1" dir="s" state="M"/>
    <connection from="gneE18" to="B" fromLane="2" toLane="2" via=":gneJ20_0_2" dir="s" state="M"/>
    <connection from="gneE2" to="gneE3" fromLane="0" toLane="0" via=":gneJ4_0_0" dir="s" state="M"/>
    <connection from="gneE2" to="gneE3" fromLane="1" toLane="1" via=":gneJ4_0_1" dir="s" state="M"/>
    <connection from="gneE2" to="gneE3" fromLane="2" toLane="2" via=":gneJ4_0_2" dir="s" state="M"/>
    <connection from="gneE3" to="gneE4" fromLane="0" toLane="0" via=":gneJ5_0_0" dir="s" state="M"/>
    <connection from="gneE3" to="gneE4" fromLane="1" toLane="1" via=":gneJ5_0_1" dir="s" state="M"/>
    <connection from="gneE3" to="gneE4" fromLane="2" toLane="2" via=":gneJ5_0_2" dir="s" state="M"/>
    <connection from="gneE4" to="gneE5" fromLane="0" toLane="0" via=":gneJ6_0_0" dir="s" state="M"/>
    <connection from="gneE4" to="gneE5" fromLane="1" toLane="1" via=":gneJ6_0_1" dir="s" state="M"/>
    <connection from="gneE4" to="gneE5" fromLane="2" toLane="2" via=":gneJ6_0_2" dir="s" state="M"/>
    <connection from="gneE5" to="gneE6" fromLane="0" toLane="0" via=":gneJ7_0_0" dir="s" state="M"/>
    <connection from="gneE5" to="gneE6" fromLane="1" toLane="1" via=":gneJ7_0_1" dir="s" state="M"/>
    <connection from="gneE5" to="gneE6" fromLane="2" toLane="2" via=":gneJ7_0_2" dir="s" state="M"/>
    <connection from="gneE6" to="gneE7" fromLane="0" toLane="0" via=":gneJ8_0_0" dir="s" state="M"/>
    <connection from="gneE6" to="gneE7" fromLane="1" toLane="1" via=":gneJ8_0_1" dir="s" state="M"/>
    <connection from="gneE6" to="gneE7" fromLane="2" toLane="2" via=":gneJ8_0_2" dir="s" state="M"/>
    <connection from="gneE7" to="gneE8" fromLane="0" toLane="0" via=":gneJ9_0_0" dir="s" state="M"/>