<?xml version="1.0" encoding="UTF-8"?>

<!-- generated on 12/09/20 08:29:16 by Eclipse SUMO netedit Version 1.8.0
<configuration xmlns:xsi="http://www.w3.org/2001/XMLSchema-instance" xsi:noNamespaceSchemaLocation="http://sumo.dlr.de/xsd/netconvertConfiguration.xsd">

    <output>
        <output-file value="C:\Users\ZLO2BP\workspace\continuousSUMO\sim_conf\basic_network.net.xml"/>
    </output>

    <processing>
        <offset.disable-normalization value="true"/>
    </processing>

    <junctions>
        <no-turnarounds value="true"/>
    </junctions>

    <report>
        <aggregate-warnings value="5"/>
    </report>

</configuration>
-->

<net version="1.6" junctionCornerDetail="5" limitTurnSpeed="5.50" xmlns:xsi="http://www.w3.org/2001/XMLSchema-instance" xsi:noNamespaceSchemaLocation="http://sumo.dlr.de/xsd/net_file.xsd">

    <location netOffset="0.00,0.00" convBoundary="0.00,0.00,200.00,0.00" origBoundary="10000000000.00,10000000000.00,-10000000000.00,-10000000000.00" projParameter="!"/>

    <edge id=":B_0" function="internal">
        <lane id=":B_0_0" index="0" speed="25.00" length="0.01" shape="100.00,-8.00 100.00,-8.00"/>
        <lane id=":B_0_1" index="1" speed="25.00" length="0.01" shape="100.00,-4.80 100.00,-4.80"/>
        <lane id=":B_0_2" index="2" speed="25.00" length="0.01" shape="100.00,-1.60 100.00,-1.60"/>
    </edge>

    <edge id="a" from="A" to="B" priority="-1">
        <lane id="a_0" index="0" speed="30.00" length="100.00" shape="0.00,-8.00 100.00,-8.00"/>
        <lane id="a_1" index="1" speed="30.00" length="100.00" shape="0.00,-4.80 100.00,-4.80"/>
        <lane id="a_2" index="2" speed="30.00" length="100.00" shape="0.00,-1.60 100.00,-1.60"/>
    </edge>
    <edge id="b" from="B" to="C" priority="-1">
        <lane id="b_0" index="0" speed="30.00" length="100.00" shape="100.00,-8.00 200.00,-8.00"/>
        <lane id="b_1" index="1" speed="30.00" length="100.00" shape="100.00,-4.80 200.00,-4.80"/>
        <lane id="b_2" index="2" speed="30.00" length="100.00" shape="100.00,-1.60 200.00,-1.60"/>
    </edge>

    <junction id="A" type="dead_end" x="0.00" y="0.00" incLanes="" intLanes="" shape="0.00,0.00 0.00,-9.60"/>
    <junction id="B" type="priority" x="100.00" y="0.00" incLanes="a_0 a_1 a_2" intLanes=":B_0_0 :B_0_1 :B_0_2" shape="100.00,0.00 100.00,-9.60 100.00,0.00">
        <request index="0" response="000" foes="000" cont="0"/>
        <request index="1" response="000" foes="000" cont="0"/>
        <request index="2" response="000" foes="000" cont="0"/>
    </junction>
    <junction id="C" type="dead_end" x="200.00" y="0.00" incLanes="b_0 b_1 b_2" intLanes="" shape="200.00,-9.60 200.00,0.00"/>

    <connection from="a" to="b" fromLane="0" toLane="0" via=":B_0_0" dir="s" state="M"/>
    <connection from="a" to="b" fromLane="1" toLane="1" via=":B_0_1" dir="s" state="M"/>
    <connection from="a" to="b" fromLane="2" toLane="2" via=":B_0_2" dir="s" state="M"/>

    <connection from=":B_0" to="b" fromLane="0" toLane="0" dir="s" state="M"/>
    <connection from=":B_0" to="b" fromLane="1" toLane="1" dir="s" state="M"/>
    <connection from=":B_0" to="b" fromLane="2" toLane="2" dir="s" state="M"/>

</net>
